Version 4
SHEET 1 2668 1748
WIRE -112 -464 -128 -464
WIRE -128 -384 -128 -464
WIRE -32 -384 -128 -384
WIRE 128 -384 48 -384
WIRE 272 -384 128 -384
WIRE -128 -368 -128 -384
WIRE 128 -368 128 -384
WIRE 272 -304 272 -384
WIRE 288 -304 272 -304
WIRE 384 -288 352 -288
WIRE 448 -288 384 -288
WIRE 288 -272 272 -272
WIRE -128 -256 -128 -288
WIRE 64 -256 -128 -256
WIRE 128 -256 128 -304
WIRE 128 -256 64 -256
WIRE -128 -224 -128 -256
WIRE 912 -208 832 -208
WIRE 272 -192 272 -272
WIRE 384 -192 384 -288
WIRE 384 -192 272 -192
WIRE 1056 -192 976 -192
WIRE 912 -176 896 -176
WIRE -128 -64 -128 -144
WIRE -128 -64 -144 -64
WIRE 800 -16 736 -16
WIRE 896 -16 896 -176
WIRE 896 -16 880 -16
WIRE 928 -16 896 -16
WIRE 1056 -16 1056 -192
WIRE 1056 -16 1008 -16
WIRE 160 128 -128 128
WIRE 1152 128 256 128
WIRE 1488 128 1152 128
WIRE 1584 128 1568 128
WIRE 1792 128 1584 128
WIRE 1808 128 1792 128
WIRE 864 192 784 192
WIRE 1280 192 944 192
WIRE 1584 192 1584 128
WIRE 1584 192 1280 192
WIRE 240 208 240 176
WIRE 240 208 144 208
WIRE 1056 208 1056 -16
WIRE 1152 208 1152 128
WIRE 784 224 784 192
WIRE 784 224 768 224
WIRE 704 240 608 240
WIRE 784 256 768 256
WIRE 784 288 784 256
WIRE 1056 288 784 288
WIRE 1152 288 1056 288
WIRE -128 368 -128 128
WIRE 1808 432 1808 128
WIRE 1072 496 1040 496
WIRE 1040 544 1040 496
WIRE 512 560 464 560
WIRE 608 560 608 240
WIRE 608 560 576 560
WIRE 1584 608 1584 192
WIRE 144 672 144 208
WIRE 208 672 144 672
WIRE 384 672 288 672
WIRE 1040 672 1040 624
WIRE 1040 672 864 672
WIRE 800 688 768 688
WIRE 1280 704 1280 192
WIRE 1280 704 864 704
WIRE 384 720 384 672
WIRE 144 768 144 672
WIRE 1040 800 1040 672
WIRE 272 816 208 816
WIRE 384 816 384 800
WIRE 384 816 272 816
WIRE 464 816 464 560
WIRE 464 816 384 816
WIRE 512 816 464 816
WIRE 768 816 768 688
WIRE 768 816 576 816
WIRE 272 848 272 816
WIRE 144 944 144 864
WIRE 272 944 272 912
WIRE 400 944 272 944
WIRE -128 1024 -128 448
WIRE 1040 1024 1040 880
WIRE 1040 1024 -128 1024
WIRE 1584 1024 1584 672
WIRE 1584 1024 1040 1024
WIRE 1808 1024 1808 512
WIRE 1808 1024 1584 1024
WIRE 1808 1040 1808 1024
FLAG -112 -464 +12
FLAG -128 -64 -12
FLAG 944 -224 -12
FLAG 944 -160 +12
FLAG 832 720 +12
FLAG 832 656 -12
FLAG 144 944 -12
FLAG 1808 1040 0
FLAG 736 272 +12
FLAG 736 208 -12
FLAG 384 672 +12
FLAG 320 -320 -12
FLAG 320 -256 +12
FLAG 1792 128 OUTPUT
FLAG 832 -208 OUTPUT
FLAG 64 -256 OUTPUT
FLAG 400 944 OUTPUT
FLAG 448 -288 REF5V
FLAG 1072 496 REF5V
FLAG 736 -16 REF5V
SYMBOL nmos 160 176 R270
SYMATTR InstName M1
SYMATTR Value IRF530
SYMBOL res 304 656 R90
WINDOW 0 0 56 VBottom 2
WINDOW 3 32 56 VTop 2
SYMATTR InstName R8
SYMATTR Value 1.2K
SYMBOL res 400 816 R180
WINDOW 0 36 76 Left 2
WINDOW 3 36 40 Left 2
SYMATTR InstName R9
SYMATTR Value 4.7K
SYMBOL pnp 208 864 R180
SYMATTR InstName Q3
SYMATTR Value 2N3906
SYMBOL diode 288 912 R180
WINDOW 0 24 64 Left 2
WINDOW 3 24 0 Left 2
SYMATTR InstName D1
SYMATTR Value ES1D
SYMBOL voltage -128 352 R0
WINDOW 123 0 0 Left 2
WINDOW 39 0 0 Left 2
SYMATTR InstName V1
SYMATTR Value SINE(40 1 100)
SYMBOL voltage -128 -384 R0
WINDOW 123 0 0 Left 2
WINDOW 39 0 0 Left 2
SYMATTR InstName V2
SYMATTR Value 12
SYMBOL voltage -128 -240 R0
WINDOW 123 0 0 Left 2
WINDOW 39 0 0 Left 2
SYMATTR InstName V3
SYMATTR Value 12
SYMBOL res 64 -400 R90
WINDOW 0 0 56 VBottom 2
WINDOW 3 32 56 VTop 2
SYMATTR InstName R12
SYMATTR Value 1K
SYMBOL res 896 -32 R90
WINDOW 0 0 56 VBottom 2
WINDOW 3 32 56 VTop 2
SYMATTR InstName R16
SYMATTR Value 3.9K
SYMBOL res 1024 -32 R90
WINDOW 0 0 56 VBottom 2
WINDOW 3 32 56 VTop 2
SYMATTR InstName R17
SYMATTR Value 2500
SYMBOL diode 512 832 R270
WINDOW 0 32 32 VTop 2
WINDOW 3 0 32 VBottom 2
SYMATTR InstName D3
SYMATTR Value 1N4148
SYMBOL diode 512 576 R270
WINDOW 0 32 32 VTop 2
WINDOW 3 0 32 VBottom 2
SYMATTR InstName D4
SYMATTR Value 1N4148
SYMBOL res 1024 784 R0
SYMATTR InstName R25
SYMATTR Value 2500
SYMBOL res 1584 112 R90
WINDOW 0 0 56 VBottom 2
WINDOW 3 32 56 VTop 2
SYMATTR InstName R30
SYMATTR Value 0.2
SYMBOL cap 1568 608 R0
SYMATTR InstName C6
SYMATTR Value 220µ
SYMBOL res 848 208 R270
WINDOW 0 32 56 VTop 2
WINDOW 3 0 56 VBottom 2
SYMATTR InstName R35
SYMATTR Value 2.5K
SYMBOL res 1168 192 M0
SYMATTR InstName R37
SYMATTR Value 2.5K
SYMBOL res 1072 304 R180
WINDOW 0 36 76 Left 2
WINDOW 3 36 40 Left 2
SYMATTR InstName R36
SYMATTR Value 50K
SYMBOL res 1024 528 R0
SYMATTR InstName R23
SYMATTR Value 715
SYMBOL References\\LT1634-5 128 -336 R0
SYMATTR InstName U4
SYMBOL Opamps\\LT1002 944 -128 M180
SYMATTR InstName U1
SYMBOL Opamps\\LT1002 736 304 R180
SYMATTR InstName U3
SYMBOL Opamps\\LT1002 832 752 R180
SYMATTR InstName U2
SYMBOL res 1792 416 R0
SYMATTR InstName R22
SYMATTR Value 5000
SYMBOL Opamps\\LT1002 320 -224 M180
SYMATTR InstName U5
TEXT -160 1064 Left 2 !.tran 0 0.05 0 1u uic
TEXT 1056 912 Left 2 ;0-5K for voltage control
TEXT 984 32 Left 2 ;0-5K for current control
